tests/data/state_estimation/pandapower/symmetric/distribution_ring_SE/input.json
{
  "node": [
    {
      "id": 1,
      "u_rated": 20000.0
    },
    {
      "id": 2,
      "u_rated": 400.0
    },
    {
      "id": 3,
      "u_rated": 400.0
    },
    {
      "id": 4,
      "u_rated": 400.0
    },
    {
      "id": 5,
      "u_rated": 400.0
    },
    {
      "id": 6,
      "u_rated": 400.0
    },
    {
      "id": 7,
      "u_rated": 400.0
    },
    {
      "id": 8,
      "u_rated": 400.0
    }
  ],
  "line": [
    {
      "id": 9,
      "from_node": 2,
      "to_node": 3,
      "from_status": 1,
      "to_status": 1,
      "r1": 0.000416,
      "x1": 0.000136,
      "c1": 1e-09,
      "tan1": 0.0,
      "i_n": 10000.0
    },
    {
      "id": 10,
      "from_node": 2,
      "to_node": 4,
      "from_status": 1,
      "to_status": 1,
      "r1": 0.000385,
      "x1": 0.000395,
      "c1": 0.0,
      "tan1": 0.0,
      "i_n": 10000.0
    },
    {
      "id": 11,
      "from_node": 3,
      "to_node": 5,
      "from_status": 1,
      "to_status": 1,
      "r1": 0.00542,
      "x1": 0.00174,
      "c1": 1e-09,
      "tan1": 0.0,
      "i_n": 10000.0
    },
    {
      "id": 12,
      "from_node": 4,
      "to_node": 6,
      "from_status": 1,
      "to_status": 1,
      "r1": 0.0085,
      "x1": 0.00286,
      "c1": 0.0,
      "tan1": 0.0,
      "i_n": 10000.0
    },
    {
      "id": 13,
      "from_node": 5,
      "to_node": 7,
      "from_status": 1,
      "to_status": 1,
      "r1": 0.0185,
      "x1": 0.01485,
      "c1": 1e-06,
      "tan1": 0.0,
      "i_n": 10000.0
    },
    {
      "id": 14,
      "from_node": 6,
      "to_node": 7,
      "from_status": 1,
      "to_status": 1,
      "r1": 0.098,
      "x1": 0.025,
      "c1": 1e-06,
      "tan1": 0.0,
      "i_n": 10000.0
    },
    {
      "id": 15,
      "from_node": 7,
      "to_node": 8,
      "from_status": 1,
      "to_status": 1,
      "r1": 0.1,
      "x1": 0.05,
      "c1": 1e-06,
      "tan1": 0.0,
      "i_n": 10000.0
    }
  ],
  "transformer": [
    {
      "id": 17,
      "from_node": 1,
      "to_node": 2,
      "from_status": 1,
      "to_status": 1,
      "u1": 20000.0,
      "u2": 400.0,
      "sn": 400000.0,
      "uk": 0.04,
      "pk": 0.0,
      "i0": 0.0,
      "p0": 0.0,
      "winding_from": 2,
      "winding_to": 1,
      "clock": 5,
      "tap_side": 0,
      "tap_pos": 0,
      "tap_min": -5,
      "tap_max": 5,
      "tap_nom": 0,
      "tap_size": 2300.0
    },
    {
      "id": 18,
      "from_node": 1,
      "to_node": 2,
      "from_status": 1,
      "to_status": 1,
      "u1": 20000.0,
      "u2": 400.0,
      "sn": 630000.0,
      "uk": 0.04,
      "pk": 0.0,
      "i0": 0.0,
      "p0": 0.0,
      "winding_from": 2,
      "winding_to": 1,
      "clock": 5,
      "tap_side": 0,
      "tap_pos": 0,
      "tap_min": -5,
      "tap_max": 5,
      "tap_nom": 0,
      "tap_size": 2300.0
    }
  ],
  "sym_load": [
    {
      "id": 19,
      "node": 7,
      "status": 1,
      "type": 0,
      "p_specified": 65550.0,
      "q_specified": 21540.0
    },
    {
      "id": 20,
      "node": 7,
      "status": 1,
      "type": 0,
      "p_specified": 70000.0,
      "q_specified": 30000.0
    },
    {
      "id": 21,
      "node": 8,
      "status": 1,
      "type": 0,
      "p_specified": 50250.0,
      "q_specified": 15800.0
    }
  ],
  "source": [
    {
      "id": 16,
      "node": 1,
      "status": 1,
      "u_ref": 1.0,
      "sk": 1e+20,
      "rx_ratio": 0.1
    }
  ],
  "sym_voltage_sensor": [
    {
      "id": 22,
      "measured_object": 1,
      "u_sigma": 100.0,
      "u_measured": 19999.99
    },
    {
      "id": 23,
      "measured_object": 2,
      "u_sigma": 100.0,
      "u_measured": 399.87
    },
    {
      "id": 24,
      "measured_object": 3,
      "u_sigma": 100.0,
      "u_measured": 398.69
    },
    {
      "id": 25,
      "measured_object": 4,
      "u_sigma": 100.0,
      "u_measured": 398.83
    },
    {
      "id": 26,
      "measured_object": 5,
      "u_sigma": 100.0,
      "u_measured": 396.37
    },
    {
      "id": 27,
      "measured_object": 6,
      "u_sigma": 100.0,
      "u_measured": 397.87
    },
    {
      "id": 28,
      "measured_object": 7,
      "u_sigma": 100.0,
      "u_measured": 386.91
    },
    {
      "id": 29,
      "measured_object": 8,
      "u_sigma": 100.0,
      "u_measured": 371.24
    }
  ],
  "sym_power_sensor": [
    {
      "id": 30,
      "measured_object": 9,
      "measured_terminal_type": 0,
      "power_sigma": 100.0,
      "p_measured": 149521.35,
      "q_measured": 67804.66
    },
    {
      "id": 31,
      "measured_object": 9,
      "measured_terminal_type": 1,
      "power_sigma": 100.0,
      "p_measured": -149450.88,
      "q_measured": -67781.67
    },
    {
      "id": 32,
      "measured_object": 10,
      "measured_terminal_type": 0,
      "power_sigma": 100.0,
      "p_measured": 43706.61,
      "q_measured": 3575.32
    },
    {
      "id": 33,
      "measured_object": 10,
      "measured_terminal_type": 1,
      "power_sigma": 100.0,
      "p_measured": -43701.95,
      "q_measured": -3570.54
    },
    {
      "id": 34,
      "measured_object": 11,
      "measured_terminal_type": 0,
      "power_sigma": 100.0,
      "p_measured": 149450.88,
      "q_measured": 67781.67
    },
    {
      "id": 35,
      "measured_object": 11,
      "measured_terminal_type": 1,
      "power_sigma": 100.0,
      "p_measured": -148532.66,
      "q_measured": -67486.94
    },
    {
      "id": 36,
      "measured_object": 12,
      "measured_terminal_type": 0,
      "power_sigma": 100.0,
      "p_measured": 43701.95,
      "q_measured": 3570.54
    },
    {
      "id": 37,
      "measured_object": 12,
      "measured_terminal_type": 1,
      "power_sigma": 100.0,
      "p_measured": -43599.21,
      "q_measured": -3535.97
    },
    {
      "id": 38,
      "measured_object": 13,
      "measured_terminal_type": 0,
      "power_sigma": 100.0,
      "p_measured": 148532.66,
      "q_measured": 67486.94
    },
    {
      "id": 39,
      "measured_object": 13,
      "measured_terminal_type": 1,
      "power_sigma": 100.0,
      "p_measured": -145398.12,
      "q_measured": -65019.03
    },
    {
      "id": 40,
      "measured_object": 14,
      "measured_terminal_type": 0,
      "power_sigma": 100.0,
      "p_measured": 43599.21,
      "q_measured": 3535.97
    },
    {
      "id": 41,
      "measured_object": 14,
      "measured_terminal_type": 1,
      "power_sigma": 100.0,
      "p_measured": -42414.59,
      "q_measured": -3282.16
    },
    {
      "id": 42,
      "measured_object": 15,
      "measured_terminal_type": 0,
      "power_sigma": 100.0,
      "p_measured": 52262.71,
      "q_measured": 16761.19
    },
    {
      "id": 43,
      "measured_object": 15,
      "measured_terminal_type": 1,
      "power_sigma": 100.0,
      "p_measured": -50249.9,
      "q_measured": -15800.0
    },
    {
      "id": 44,
      "measured_object": 17,
      "measured_terminal_type": 0,
      "power_sigma": 100.0,
      "p_measured": 75039.98,
      "q_measured": 28363.93
    },
    {
      "id": 45,
      "measured_object": 17,
      "measured_terminal_type": 1,
      "power_sigma": 100.0,
      "p_measured": -75039.98,
      "q_measured": -27720.38
    },
    {
      "id": 46,
      "measured_object": 18,
      "measured_terminal_type": 0,
      "power_sigma": 100.0,
      "p_measured": 118187.98,
      "q_measured": 44673.19
    },
    {
      "id": 47,
      "measured_object": 18,
      "measured_terminal_type": 1,
      "power_sigma": 100.0,
      "p_measured": -118187.98,
      "q_measured": -43659.6
    }
  ]
}