tests/data/state_estimation/pandapower/symmetric/distribution_ring_SE/pgm_sym_output.json
{
  "line": [
    {
      "id": 9,
      "energized": 1,
      "loading": 0.023749962677785872,
      "p_from": 149435.24982612443,
      "q_from": 67769.00824574966,
      "i_from": 237.49959690177982,
      "s_from": 164083.91867946327,
      "p_to": -149364.85505624104,
      "q_to": -67746.0445330047,
      "i_to": 237.4996267778587,
      "s_to": 164010.3242964898
    },
    {
      "id": 10,
      "energized": 1,
      "loading": 0.0063437456277204195,
      "p_from": 43681.747039600574,
      "q_from": 3574.1056880159545,
      "i_from": 63.43745627720419,
      "s_from": 43827.72245851661,
      "p_to": -43677.09896055852,
      "q_to": -3569.3368796481313,
      "i_to": 63.43745627720419,
      "s_to": 43822.701187521954
    },
    {
      "id": 11,
      "energized": 1,
      "loading": 0.02374996565894424,
      "p_from": 149364.85505858023,
      "q_from": 67746.04453703351,
      "i_from": 237.49962678335336,
      "s_from": 164010.32430028426,
      "p_to": -148447.6922007631,
      "q_to": -67451.65444950011,
      "i_to": 237.4996565894424,
      "s_to": 163053.49737956334
    },
    {
      "id": 12,
      "energized": 1,
      "loading": 0.006343745627729519,
      "p_from": 43677.098960617135,
      "q_from": 3569.3368797027615,
      "i_from": 63.43745627729519,
      "s_from": 43822.70118758482,
      "p_to": -43574.47903371431,
      "q_to": -3534.808292533109,
      "i_to": 63.43745627729519,
      "s_to": 43717.61764694606
    },
    {
      "id": 13,
      "energized": 1,
      "loading": 0.023752885266449898,
      "p_from": 148447.69220216252,
      "q_from": 67451.65444955644,
      "i_from": 237.4996565913321,
      "s_from": 163053.49738086073,
      "p_to": -145316.7622831485,
      "q_to": -64986.6445430574,
      "i_to": 237.528852664499,
      "s_to": 159186.13435039742
    },
    {
      "id": 14,
      "energized": 1,
      "loading": 0.006344308250834917,
      "p_from": 43574.47904983995,
      "q_from": 3534.808301215584,
      "i_from": 63.43745630163674,
      "s_from": 43717.61766372092,
      "p_to": -42391.222445318184,
      "q_to": -3281.340635243218,
      "i_to": 63.44308250834917,
      "s_to": 42518.030725481
    },
    {
      "id": 15,
      "energized": 1,
      "loading": 0.008192029185761097,
      "p_from": 52264.662631304964,
      "q_from": 16762.893039649418,
      "i_from": 81.89947476903653,
      "s_from": 54887.061708774796,
      "p_to": -50251.87844985611,
      "q_to": -15801.668243975491,
      "i_to": 81.92029185761098,
      "s_to": 52677.7372998478
    }
  ],
  "node": [
    {
      "id": 1,
      "energized": 1,
      "u_pu": 1.0000072484374212,
      "u": 20000.144968748424,
      "u_angle": 0.0
    },
    {
      "id": 2,
      "energized": 1,
      "u_pu": 0.9972005832335672,
      "u": 398.8802332934269,
      "u_angle": -2.6255146372683185
    },
    {
      "id": 3,
      "energized": 1,
      "u_pu": 0.9967531967010648,
      "u": 398.7012786804259,
      "u_angle": -2.625465159037676
    },
    {
      "id": 4,
      "energized": 1,
      "u_pu": 0.9970863355819994,
      "u": 398.8345342327998,
      "u_angle": -2.625614445789767
    },
    {
      "id": 5,
      "energized": 1,
      "u_pu": 0.9909380707772527,
      "u": 396.3752283109011,
      "u_angle": -2.624786267358855
    },
    {
      "id": 6,
      "energized": 1,
      "u_pu": 0.994695397560699,
      "u": 397.8781590242796,
      "u_angle": -2.6262104417895062
    },
    {
      "id": 7,
      "energized": 1,
      "u_pu": 0.9673157227794978,
      "u": 386.9262891117991,
      "u_angle": -2.6310205683355834
    },
    {
      "id": 8,
      "energized": 1,
      "u_pu": 0.9281432329132349,
      "u": 371.25729316529396,
      "u_angle": -2.6375266867639193
    }
  ],
  "source": [
    {
      "id": 16,
      "energized": 1,
      "p": 193116.99686248202,
      "q": 72998.34950137939,
      "i": 5.9597480102276625,
      "s": 206453.2235328609,
      "pf": 0.9354031560168099
    }
  ],
  "sym_load": [
    {
      "id": 19,
      "energized": 1,
      "p": 67721.66104858063,
      "q": 25752.546069325595,
      "i": 108.11020013011498,
      "s": 72452.8605662439,
      "pf": 0.9346996173693168
    },
    {
      "id": 20,
      "energized": 1,
      "p": 67721.66104858063,
      "q": 25752.546069325595,
      "i": 108.11020013011498,
      "s": 72452.8605662439,
      "pf": 0.9346996173693168
    },
    {
      "id": 21,
      "energized": 1,
      "p": 50251.87844985611,
      "q": 15801.668243975491,
      "i": 81.92029185761098,
      "s": 52677.7372998478,
      "pf": 0.9539490689172273
    }
  ],
  "sym_power_sensor": [
    {
      "id": 30,
      "energized": 1,
      "p_residual": 86.10017387555845,
      "q_residual": 35.651754250340396
    },
    {
      "id": 31,
      "energized": 1,
      "p_residual": -86.02494375897774,
      "q_residual": -35.62546699531488
    },
    {
      "id": 32,
      "energized": 1,
      "p_residual": 24.86296039942715,
      "q_residual": 1.2143119840460521
    },
    {
      "id": 33,
      "energized": 1,
      "p_residual": -24.85103944147721,
      "q_residual": -1.20312035186863
    },
    {
      "id": 34,
      "energized": 1,
      "p_residual": 86.02494141976558,
      "q_residual": 35.62546296649594
    },
    {
      "id": 35,
      "energized": 1,
      "p_residual": -84.967799236918,
      "q_residual": -35.285550499891684
    },
    {
      "id": 36,
      "energized": 1,
      "p_residual": 24.85103938286437,
      "q_residual": 1.2031202972387183
    },
    {
      "id": 37,
      "energized": 1,
      "p_residual": -24.730966285683998,
      "q_residual": -1.1617074668905831
    },
    {
      "id": 38,
      "energized": 1,
      "p_residual": 84.96779783748187,
      "q_residual": 35.28555044356174
    },
    {
      "id": 39,
      "energized": 1,
      "p_residual": -81.35771685149895,
      "q_residual": -32.38545694260464
    },
    {
      "id": 40,
      "energized": 1,
      "p_residual": 24.730950160048447,
      "q_residual": 1.1616987844157052
    },
    {
      "id": 41,
      "energized": 1,
      "p_residual": -23.36755468181073,
      "q_residual": -0.8193647567816299
    },
    {
      "id": 42,
      "energized": 1,
      "p_residual": -1.952631304966146,
      "q_residual": -1.7030396494178979
    },
    {
      "id": 43,
      "energized": 1,
      "p_residual": 1.978449856110398,
      "q_residual": 1.6682439754889256
    },
    {
      "id": 44,
      "energized": 1,
      "p_residual": 43.088014569647726,
      "q_residual": 15.056407232580394
    },
    {
      "id": 45,
      "energized": 1,
      "p_residual": -43.08801457018896,
      "q_residual": -14.31633261031115
    },
    {
      "id": 46,
      "energized": 1,
      "p_residual": 67.8751229474528,
      "q_residual": 23.714091389806512
    },
    {
      "id": 47,
      "energized": 1,
      "p_residual": -67.87512294670339,
      "q_residual": -22.54972386276505
    }
  ],
  "sym_voltage_sensor": [
    {
      "id": 22,
      "energized": 1,
      "u_residual": -0.15496874842257924
    },
    {
      "id": 23,
      "energized": 1,
      "u_residual": 0.9897667065731142
    },
    {
      "id": 24,
      "energized": 1,
      "u_residual": -0.011278680425919063
    },
    {
      "id": 25,
      "energized": 1,
      "u_residual": -0.00453423279980214
    },
    {
      "id": 26,
      "energized": 1,
      "u_residual": -0.005228310901062017
    },
    {
      "id": 27,
      "energized": 1,
      "u_residual": -0.008159024279619231
    },
    {
      "id": 28,
      "energized": 1,
      "u_residual": -0.01628911179909487
    },
    {
      "id": 29,
      "energized": 1,
      "u_residual": -0.0172931652939301
    }
  ],
  "transformer": [
    {
      "id": 17,
      "energized": 1,
      "loading": 0.20044002284743764,
      "p_from": 74996.89198543034,
      "q_from": 28348.873592767417,
      "i_from": 2.3144652466903533,
      "s_from": 80176.00913897506,
      "p_to": -74996.8919854298,
      "q_to": -27706.063667389688,
      "i_to": 115.72326233451629,
      "s_to": 79950.98355502373
    },
    {
      "id": 18,
      "energized": 1,
      "loading": 0.20044002284743817,
      "p_from": 118120.10487705255,
      "q_from": 44649.4759086102,
      "i_from": 3.6452827635373155,
      "s_from": 126277.21439388604,
      "p_to": -118120.1048770533,
      "q_to": -43637.05027613723,
      "i_to": 182.26413817686424,
      "s_to": 125922.79909916312
    }
  ]
}