tests/data/state_estimation/pandapower/symmetric/distribution_ring_SE/sym_output.json
{
  "line": [
    {
      "id": 9,
      "loading": 0.023763653170769616,
      "p_from": 149521.35721599087,
      "q_from": 67804.66219608102,
      "i_from": 237.63650183314112,
      "s_from": 164177.0644128972,
      "p_to": -149450.8812656076,
      "q_to": -67781.67194263426,
      "i_to": 237.63653170769612,
      "s_to": 164103.3849815586
    },
    {
      "id": 10,
      "loading": 0.0063474024081670325,
      "p_from": 43706.610228054415,
      "q_from": 3575.3218395359922,
      "i_from": 63.47402408167033,
      "s_from": 43852.60201953054,
      "p_to": -43701.956788802665,
      "q_to": -3570.547531732245,
      "i_to": 63.47402408167033,
      "s_to": 43847.57503952453
    },
    {
      "id": 11,
      "loading": 0.02376365615122235,
      "p_from": 149450.88126559704,
      "q_from": 67781.6719426432,
      "i_from": 237.6365317076876,
      "s_from": 164103.3849815527,
      "p_to": -148532.6607194325,
      "q_to": -67486.94230095821,
      "i_to": 237.63656151222352,
      "s_to": 163145.45253094524
    },
    {
      "id": 12,
      "loading": 0.006347402408167532,
      "p_from": 43701.956788806194,
      "q_from": 3570.5475317313326,
      "i_from": 63.47402408167531,
      "s_from": 43847.57503952797,
      "p_to": -43599.21851961161,
      "q_to": -3535.979125861154,
      "i_to": 63.474024081675324,
      "s_to": 43742.370807940555
    },
    {
      "id": 13,
      "loading": 0.02376657556769338,
      "p_from": 148532.6607194342,
      "q_from": 67486.94230095556,
      "i_from": 237.63656151222418,
      "s_from": 163145.45253094574,
      "p_to": -145398.1204043386,
      "q_to": -65019.032446725745,
      "i_to": 237.6657556769338,
      "s_to": 159273.62618281445
    },
    {
      "id": 14,
      "loading": 0.006347964869059182,
      "p_from": 43599.218519610506,
      "q_from": 3535.9791258602795,
      "i_from": 63.47402408167362,
      "s_from": 43742.37080793938,
      "p_to": -42414.59746294663,
      "q_to": -3282.161619608614,
      "i_to": 63.47964869059182,
      "s_to": 42541.399399185626
    },
    {
      "id": 15,
      "loading": 0.008191894162033368,
      "p_from": 52262.717867288055,
      "q_from": 16761.19406633502,
      "i_from": 81.89812634134105,
      "s_from": 54884.690993072865,
      "p_to": -50250.00000000024,
      "q_to": -15800.000000000075,
      "i_to": 81.91894162033368,
      "s_to": 52675.444943541064
    }
  ],
  "node": [
    {
      "id": 1,
      "u_pu": 0.9999999999999991,
      "u": 19999.99999999998,
      "u_angle": -1.8361039822474877e-15
    },
    {
      "id": 2,
      "u_pu": 0.9971918413454097,
      "u": 398.8767365381639,
      "u_angle": -0.007525201519499078
    },
    {
      "id": 3,
      "u_pu": 0.9967441959910074,
      "u": 398.697678396403,
      "u_angle": -0.007475702780476626
    },
    {
      "id": 4,
      "u_pu": 0.9970775296918761,
      "u": 398.83101187675044,
      "u_angle": -0.007625070588465844
    },
    {
      "id": 5,
      "u_pu": 0.9909257053755123,
      "u": 396.3702821502049,
      "u_angle": -0.006796521776815417
    },
    {
      "id": 6,
      "u_pu": 0.9946852246385236,
      "u": 397.87408985540947,
      "u_angle": -0.00822146111549158
    },
    {
      "id": 7,
      "u_pu": 0.9672898677550251,
      "u": 386.91594710201,
      "u_angle": -0.013035038062952182
    },
    {
      "id": 8,
      "u_pu": 0.9281181408198248,
      "u": 371.2472563279299,
      "u_angle": -0.019542013023643376
    }
  ],
  "sym_load": [
    {
      "id": 19,
      "p": 65550.0,
      "q": 21540.0
    },
    {
      "id": 20,
      "p": 70000.0,
      "q": 30000.0
    },
    {
      "id": 21,
      "p": 50249.99999999999,
      "q": 15799.999999999998
    }
  ],
  "transformer": [
    {
      "id": 17,
      "loading": 0.20055411395646502,
      "p_from": 75039.9873569192,
      "q_from": 28363.933391746534,
      "i_from": 2.3157994335970393,
      "s_from": 80221.64558258593,
      "p_to": -75039.9873569192,
      "q_to": -27720.382149748737,
      "i_to": 115.78997167985194,
      "s_to": 79996.37047425778
    },
    {
      "id": 18,
      "loading": 0.20055411395646483,
      "p_from": 118187.98008714775,
      "q_from": 44673.19509200048,
      "i_from": 3.6473841079153333,
      "s_from": 126349.09179257273,
      "p_to": -118187.98008714775,
      "q_to": -43659.60188585395,
      "i_to": 182.36920539576664,
      "s_to": 125994.2834969559
    }
  ]
}